! 2d domain
REENTRANT_X = False
REENTRANT_Y = True

! 200km long domain at 1km grid spacing
NIGLOBAL = 200
NJGLOBAL = 4

GRID_CONFIG = "cartesian"
AXIS_UNITS = "k"
SOUTHLAT = 0.0
LENLON = 200.0
LENLAT = 4.0

! 100 vertical levels (20m resolution)
NK = 100
MAXIMUM_DEPTH = 2000.0

! read topography from file
TOPO_CONFIG = "file"
TOPO_FILE = "input.nc"
TOPO_VAR = "depth"

! bottom boundary layer
BOTTOMDRAGLAW = False
CDRAG = 0.0

! time control
DT = 5.0
TIMEUNIT = 3600.0
