REENTRANT_X = True
REENTRANT_Y = False
NIHALO = 4
NJHALO = 4

! 160km wide domain at 4km spacing
NIGLOBAL = 40
! 500km long domain at 4km spacing
NJGLOBAL = 125
! output on a single processor
IO_LAYOUT = 1,1

! 20 vertical levels (50m resolution)
NK = 20
BULKMIXEDLAYER = False
DT = 1800.0

! linear equation of state
EQN_OF_STATE = "LINEAR"
RHO_T0_S0 = 1001.0
DRHO_DS = 0.0

INPUTDIR = "."

! define density range for RHO coordinates
COORD_CONFIG = "ts_range"
TS_RANGE_T_LIGHT = 13.1
TS_RANGE_T_DENSE = 8.9

GRID_CONFIG = "cartesian"
AXIS_UNITS = "k"
SOUTHLAT = 0.0
LENLAT = 500.0
LENLON = 160.0
TOPO_CONFIG = "flat"

MAXIMUM_DEPTH = 1000.0
ROTATION = "betaplane"
F_0 = -1.2E-04
! uniform layer thickness (same as ALE coordinate)
THICKNESS_CONFIG = "coord"

! initialise temperature distribution to drive model
TS_CONFIG = "file"
TS_FILE = "input.nc"
TEMP_IC_VAR = "temp"
SALT_IC_VAR = "salt"

! these probably don't do anything important
S_REF = 35.0
T_REF = 10.0

! bottom boundary layer configuration
HBBL = 10.0
HMIX_FIXED = 20.0
CDRAG = 0.01
BBL_EFFIC = 0.0

! only laplacian drag, we'll set KH per-experiment
BIHARMONIC = False
LAPLACIAN = True
BOUND_KH = False

! vertical viscosity is fixed, but not enhanced in the mixed layer
KV = 1.0E-04
KVML = 0.0
MAXVEL = 20.0

! no explicit diffusion
KD = 0.0
KD_SMOOTH = 0.0

! don't restore densities in layers (not sure if this does anything)
CORRECT_DENSITY = False
BUOY_CONFIG = "zero"
WIND_CONFIG = "zero"

! run control
MAXTRUNC = 10
TIMEUNIT = 86400.0
ENERGYSAVEDAYS = 1.0
RESTART_CONTROL = -1

! ALE configuration
USE_REGRIDDING = True
REGRIDDING_COORDINATE_MODE = "Z*"
ALE_COORDINATE_CONFIG = "UNIFORM"
REMAPPING_SCHEME = "PQM_IH6IH5"
BOUNDARY_EXTRAPOLATION = True
