! 2d domain
REENTRANT_X = False
REENTRANT_Y = True

! 250km long domain at 5km grid spacing
NIGLOBAL = 50
NJGLOBAL = 4

GRID_CONFIG = "cartesian"
AXIS_UNITS = "k"
SOUTHLAT = 0.0
LENLON = 250.0
LENLAT = 20.0

! 20 vertical levels (1m resolution)
NK = 20
MAXIMUM_DEPTH = 500.0
TOPO_CONFIG = "flat"

! bottom boundary layer
BOTTOMDRAGLAW = False
CDRAG = 0.0

! barotropic solver
BT_THICK_SCHEME = "HYBRID"
BOUND_BT_CORRECTION = True

! time control
DT = 1800.0
TIMEUNIT = 3600.0
