"Overflow"
1 1 1 0 0 0
"prog",1,"hours",1,"hours","Time",

"ocean_model","temp","temp","prog","all",.false.,"none",2
"ocean_model","h","h","prog","all",.false.,"none",2

#"ocean_model","T_preale","T_preale","prog","all",.false.,"none",2
#"ocean_model","h_preale","h_preale","prog","all",.false.,"none",2
