! 2d domain
REENTRANT_X = False
REENTRANT_Y = True

! 64km long domain at 0.5km grid spacing
NIGLOBAL = 128
NJGLOBAL = 4

GRID_CONFIG = "cartesian"
AXIS_UNITS = "k"
SOUTHLAT = 0.0
LENLON = 64.0
LENLAT = 2.0

! 20 vertical levels (1m resolution)
NK = 20
MAXIMUM_DEPTH = 20.0
TOPO_CONFIG = "flat"

! bottom boundary layer
BOTTOMDRAGLAW = False
CDRAG = 0.0

! time control
DT = 120.0
TIMEUNIT = 3600.0
